*Heading
** Job name: tet4_mat1_ex Model name: tet4_mat1_ex
** Generated by: Abaqus/CAE 2019
*Preprint, echo=NO, model=NO, history=NO, contact=NO
**
** PARTS
**
*Part, name=PART-1
*Node
      1,           0.,           0.,           0.
      2,           1.,           0.,           0.
      3,           0.,           1.,           0.
      4,           0.,           0.,           1.
*Element, type=C3D4
1, 1, 2, 3, 4
*Elset, elset=HMPROP_PROPERTY2
 1,
** Section: Section-1-HMPROP_PROPERTY2
*Solid Section, elset=HMPROP_PROPERTY2, controls=EC-1, material=MATERIAL1
,
*End Part
**  
**
** ASSEMBLY
**
*Assembly, name=Assembly
**  
*Instance, name=PART-1-1, part=PART-1
*End Instance
**  
*Nset, nset=ALL, instance=PART-1-1
 1, 3
*Nset, nset=FIX, instance=PART-1-1, generate
 1,  3,  1
*Nset, nset=SET-2, instance=PART-1-1
 4,
*End Assembly
** 
** ELEMENT CONTROLS
** 
*Section Controls, name=EC-1, hourglass=RELAX STIFFNESS
1., 1., 1.
*Amplitude, name=CURVE1
             0.,              0.,              1.,              1.
** 
** MATERIALS
** 
**  HMNAME MATS          1 material1     7
*Material, name=MATERIAL1
*Density
1000.,
*Elastic
 2e+07, 0.3
** ----------------------------------------------------------------
** 
** STEP: Step-1
** 
*Step, name=Step-1, nlgeom=YES
*Dynamic, Explicit, direct user control
0.001, 1.
*Bulk Viscosity
0.06, 1.2
** 
** BOUNDARY CONDITIONS
** 
** Name: Disp-BC-1 Type: Displacement/Rotation
*Boundary
FIX, 1, 1
** Name: Disp-BC-2 Type: Displacement/Rotation
*Boundary
FIX, 2, 2
** Name: Disp-BC-3 Type: Displacement/Rotation
*Boundary
FIX, 3, 3
** Name: Disp-BC-4 Type: Displacement/Rotation
*Boundary
FIX, 4, 4
** Name: Disp-BC-5 Type: Displacement/Rotation
*Boundary
FIX, 5, 5
** Name: Disp-BC-6 Type: Displacement/Rotation
*Boundary
FIX, 6, 6
** 
** LOADS
** 
** Name: CFORCE-1   Type: Concentrated force
*Cload, amplitude=CURVE1
SET-2, 3, 10000.
** 
** OUTPUT REQUESTS
** 
*Restart, write, number interval=1, time marks=NO
** 
** FIELD OUTPUT: F-Output-1
** 
*Output, field, variable=PRESELECT
** 
** HISTORY OUTPUT: H-Output-1
** 
*Output, history, variable=PRESELECT
*End Step
