*Heading
** Job name: hex8_mat1_ex Model name: Model-1
** Generated by: Abaqus/CAE 2019
*Preprint, echo=NO, model=NO, history=NO, contact=NO
**
** PARTS
**
*Part, name=Part-1
*Node
      1,           1.,           1.,           1.
      2,           1.,           0.,           1.
      3,           1.,           1.,           0.
      4,           1.,           0.,           0.
      5,           0.,           1.,           1.
      6,           0.,           0.,           1.
      7,           0.,           1.,           0.
      8,           0.,           0.,           0.
*Element, type=C3D8
1, 5, 6, 8, 7, 1, 2, 4, 3
*Nset, nset=Set-1, generate
 1,  8,  1
*Elset, elset=Set-1
 1,
** Section: Section-1
*Solid Section, elset=Set-1, material=Material-1
,
*End Part
**  
**
** ASSEMBLY
**
*Assembly, name=Assembly
**  
*Instance, name=Part-1-1, part=Part-1
*End Instance
**  
*Nset, nset=fix, instance=Part-1-1
 3, 4, 7, 8
*Nset, nset=force, instance=Part-1-1
 1, 2, 5, 6
*End Assembly
*Amplitude, name=Amp-1
             0.,              0.,              1.,              1.
** 
** MATERIALS
** 
*Material, name=Material-1
*Density
1000.,
*Elastic
 2e+07, 0.3
** ----------------------------------------------------------------
** 
** STEP: Step-1
** 
*Step, name=Step-1, nlgeom=YES
*Dynamic, Explicit, direct user control
0.001, 1.
*Bulk Viscosity
0.06, 1.2
** 
** BOUNDARY CONDITIONS
** 
** Name: BC-1 Type: Displacement/Rotation
*Boundary
fix, 1, 1
fix, 2, 2
fix, 3, 3
fix, 4, 4
fix, 5, 5
fix, 6, 6
** 
** LOADS
** 
** Name: Load-1   Type: Concentrated force
*Cload
force, 3, 100000.
** 
** OUTPUT REQUESTS
** 
*Restart, write, number interval=1, time marks=NO
** 
** FIELD OUTPUT: F-Output-1
** 
*Output, field, variable=PRESELECT
** 
** HISTORY OUTPUT: H-Output-1
** 
*Output, history, variable=PRESELECT
*End Step
